Version 4
SHEET 1 880 680
WIRE 208 -176 96 -176
WIRE 208 -144 208 -176
WIRE 208 -48 208 -64
WIRE 96 0 96 -176
WIRE 208 0 96 0
WIRE -80 32 -256 32
WIRE 112 32 -80 32
WIRE 208 48 208 0
WIRE 304 48 208 48
WIRE 304 96 304 48
WIRE 304 96 208 96
WIRE -256 112 -256 32
WIRE 112 128 112 32
WIRE 160 128 112 128
WIRE 208 160 208 144
WIRE 304 160 208 160
WIRE 304 208 304 160
WIRE 304 208 208 208
WIRE -80 240 -416 240
WIRE 160 240 -80 240
WIRE 208 272 208 256
WIRE 432 272 208 272
WIRE -416 288 -416 240
WIRE 208 304 208 272
WIRE 208 304 128 304
WIRE 336 304 208 304
WIRE 128 336 128 304
WIRE 336 336 336 304
WIRE 80 416 32 416
WIRE 288 416 256 416
WIRE 128 480 128 432
WIRE 224 480 128 480
WIRE 336 480 336 432
WIRE 336 480 224 480
WIRE 224 512 224 480
FLAG 208 -48 0
FLAG 256 416 B
FLAG 32 416 A
FLAG 224 512 0
FLAG -256 192 0
FLAG -416 368 0
FLAG 432 272 OUT
FLAG -80 32 A
FLAG -80 240 B
SYMBOL pmos4 160 48 R0
SYMATTR InstName M1
SYMATTR Value P_50n
SYMATTR Value2 l=50n w=1.12u
SYMBOL pmos4 160 160 R0
SYMATTR InstName M2
SYMATTR Value P_50n
SYMATTR Value2 l=50n w=1.12u
SYMBOL nmos4 80 336 R0
SYMATTR InstName M3
SYMATTR Value N_50n
SYMATTR Value2 l=50n w=0.5u
SYMBOL nmos4 288 336 R0
SYMATTR InstName M4
SYMATTR Value N_50n
SYMATTR Value2 l=50n w=0.5u
SYMBOL voltage 208 -160 R0
WINDOW 123 0 0 Left 2
WINDOW 39 0 0 Left 2
SYMATTR InstName VDD
SYMATTR Value 1.2
SYMBOL voltage -256 96 R0
WINDOW 123 0 0 Left 2
WINDOW 39 0 0 Left 2
SYMATTR InstName V1
SYMATTR Value PULSE(1.2 0 0 10n 10n 50u 100u)
SYMBOL voltage -416 272 R0
WINDOW 123 0 0 Left 2
WINDOW 39 0 0 Left 2
SYMATTR InstName V2
SYMATTR Value PULSE(1.2 0 0 10n 10n 100u 200u)
TEXT 392 88 Left 2 !.include cmosedu_models.txt
TEXT 400 120 Left 2 !.tran 200u
