Version 4
SHEET 1 1236 680
WIRE 576 32 400 32
WIRE 672 32 672 16
WIRE 672 32 576 32
WIRE 752 32 672 32
WIRE 928 32 752 32
WIRE 1104 32 928 32
WIRE 400 80 400 32
WIRE 576 80 576 32
WIRE 752 80 752 32
WIRE 928 80 928 32
WIRE 1104 80 1104 32
WIRE 144 208 144 160
WIRE 272 208 144 208
WIRE 400 208 400 160
WIRE 576 208 576 160
WIRE 752 208 752 160
WIRE 928 208 928 160
WIRE 1104 208 1104 160
WIRE 144 224 144 208
WIRE 400 224 400 208
WIRE 576 224 576 208
WIRE 752 224 752 208
WIRE 928 224 928 208
WIRE 1104 224 1104 208
WIRE 144 272 48 272
WIRE 496 272 400 272
WIRE 672 272 576 272
WIRE 848 272 752 272
WIRE 1024 272 928 272
WIRE 1200 272 1104 272
WIRE 272 304 272 208
WIRE 272 304 192 304
WIRE 496 320 496 272
WIRE 496 320 400 320
WIRE 672 320 672 272
WIRE 672 320 576 320
WIRE 848 320 848 272
WIRE 848 320 752 320
WIRE 1024 320 1024 272
WIRE 1024 320 928 320
WIRE 1200 320 1200 272
WIRE 1200 320 1104 320
WIRE 48 336 48 272
WIRE 144 336 144 320
WIRE 144 336 48 336
WIRE 400 336 400 320
WIRE 576 336 576 320
WIRE 752 336 752 320
WIRE 928 336 928 320
WIRE 1104 336 1104 320
WIRE 144 368 144 336
WIRE 272 368 272 304
WIRE 352 368 352 304
WIRE 352 368 272 368
WIRE 528 368 528 304
WIRE 528 368 352 368
WIRE 704 368 704 304
WIRE 704 368 528 368
WIRE 880 368 880 304
WIRE 880 368 704 368
WIRE 1056 368 1056 304
WIRE 1056 368 880 368
FLAG 144 368 0
FLAG 400 336 0
FLAG 576 336 0
FLAG 752 336 0
FLAG 928 336 0
FLAG 0 160 0
FLAG 672 16 VDD
FLAG 0 80 VDD
FLAG 144 80 VDD
FLAG 1104 336 0
FLAG 400 208 R_1
FLAG 576 208 R_2
FLAG 928 208 R_4
FLAG 1104 208 R_5
FLAG 752 208 R_3
FLAG 144 208 I_d
SYMBOL voltage 0 64 R0
WINDOW 123 0 0 Left 2
WINDOW 39 0 0 Left 2
SYMATTR InstName V1
SYMATTR Value 5
SYMBOL current 144 80 R0
WINDOW 123 0 0 Left 2
WINDOW 39 0 0 Left 2
SYMATTR InstName I1
SYMATTR Value 3.92966e-005
SYMBOL res 384 64 R0
SYMATTR InstName R1
SYMATTR Value 100k
SYMBOL res 560 64 R0
SYMATTR InstName R2
SYMATTR Value 50k
SYMBOL res 736 64 R0
SYMATTR InstName R3
SYMATTR Value 10k
SYMBOL res 912 64 R0
SYMATTR InstName R4
SYMATTR Value 1k
SYMBOL res 1088 64 R0
SYMATTR InstName R5
SYMATTR Value 1Meg
SYMBOL nmos4 192 224 M0
SYMATTR InstName M1
SYMATTR Value N_1u
SYMATTR Value2 l=1.5u w=3u
SYMBOL nmos4 352 224 R0
SYMATTR InstName M2
SYMATTR Value N_1u
SYMATTR Value2 l=1.5u w=3u
SYMBOL nmos4 528 224 R0
SYMATTR InstName M3
SYMATTR Value N_1u
SYMATTR Value2 l=1.5u w=3u
SYMBOL nmos4 704 224 R0
SYMATTR InstName M4
SYMATTR Value N_1u
SYMATTR Value2 l=1.5u w=3u
SYMBOL nmos4 880 224 R0
SYMATTR InstName M5
SYMATTR Value N_1u
SYMATTR Value2 l=1.5u w=3u
SYMBOL nmos4 1056 224 R0
SYMATTR InstName M6
SYMATTR Value N_1u
SYMATTR Value2 l=1.5u w=3u
TEXT 240 24 Left 2 !.op
TEXT 240 8 Left 2 !.include cmosedu_models.txt
