Version 4
SHEET 1 880 680
WIRE 192 32 32 32
WIRE 32 64 32 32
WIRE 192 64 192 32
WIRE 192 160 192 144
WIRE 192 160 80 160
WIRE 192 176 192 160
WIRE 304 224 192 224
WIRE 80 256 80 160
WIRE 144 256 80 256
WIRE 192 288 192 272
WIRE 304 288 304 224
WIRE 304 288 192 288
WIRE 192 304 192 288
FLAG 192 304 0
FLAG 32 144 0
SYMBOL nmos4 144 176 R0
SYMATTR InstName M1
SYMATTR Value N_1u
SYMATTR Value2 l=1.5u w=3u
SYMBOL current 192 64 R0
WINDOW 123 0 0 Left 2
WINDOW 39 0 0 Left 2
SYMATTR InstName Id
SYMATTR Value 2.98162e-006
SYMBOL voltage 32 48 R0
WINDOW 123 0 0 Left 2
WINDOW 39 0 0 Left 2
SYMATTR InstName VDD
SYMATTR Value 1.5
TEXT 72 -8 Left 2 !.include cmosedu_models.txt
TEXT 72 16 Left 2 !.op
