Version 4
SHEET 1 880 680
WIRE 192 80 32 80
WIRE 192 96 192 80
WIRE 192 96 128 96
WIRE 32 112 32 80
WIRE 192 112 192 96
WIRE 288 160 192 160
WIRE 128 192 128 96
WIRE 144 192 128 192
WIRE 288 208 288 160
WIRE 288 208 192 208
WIRE 192 240 192 208
FLAG 32 192 0
FLAG 192 240 0
SYMBOL voltage 32 96 R0
WINDOW 123 0 0 Left 2
WINDOW 39 0 0 Left 2
SYMATTR InstName VDD
SYMATTR Value 1
SYMBOL nmos4 144 112 R0
SYMATTR InstName M1
SYMATTR Value N_1u
SYMATTR Value2 l=1.5u w=3u
TEXT 32 24 Left 2 !.include cmosedu_models.txt
TEXT 32 40 Left 2 !.op
