Version 4
SHEET 1 936 680
WIRE 384 -368 208 -368
WIRE 384 -288 384 -368
WIRE 384 -160 384 -208
WIRE 208 -112 208 -368
WIRE 208 -112 112 -112
WIRE 336 -112 208 -112
WIRE 336 -96 336 -112
WIRE 400 -96 336 -96
WIRE 112 -80 112 -112
WIRE 176 -80 112 -80
WIRE 336 -80 336 -96
WIRE 176 -32 176 -80
WIRE 176 -32 112 -32
WIRE 400 -32 400 -96
WIRE 400 -32 336 -32
WIRE 64 0 0 0
WIRE 256 0 240 0
WIRE 288 0 256 0
WIRE 112 48 112 16
WIRE 208 48 112 48
WIRE 336 48 336 16
WIRE 336 48 208 48
WIRE 208 64 208 48
WIRE 432 64 208 64
WIRE 448 64 432 64
WIRE 208 80 208 64
WIRE -16 112 -240 80
WIRE -240 128 -240 80
WIRE 336 128 208 128
WIRE -16 160 -16 112
WIRE 160 160 -16 160
WIRE -240 208 -304 208
WIRE 208 208 208 176
WIRE 320 256 208 256
WIRE -160 288 -304 208
WIRE 0 288 -32 288
WIRE 160 288 0 288
WIRE -32 304 -32 288
WIRE -32 304 -96 304
WIRE 208 320 208 304
WIRE 320 320 320 256
WIRE 320 320 208 320
WIRE -96 352 -96 304
WIRE 208 352 208 320
WIRE 336 352 336 128
WIRE 336 352 208 352
WIRE 208 384 208 352
WIRE -96 480 -96 432
FLAG -160 288 0
FLAG -96 480 0
FLAG 384 -160 0
FLAG -240 80 A
FLAG 0 288 B
FLAG 208 384 0
FLAG 432 64 OUT
FLAG 0 0 A
FLAG 256 0 B
SYMBOL nmos4 160 208 R0
SYMATTR InstName M1
SYMATTR Value N_50n
SYMATTR Value2 l=50n w=0.5u
SYMBOL nmos4 160 80 R0
SYMATTR InstName M2
SYMATTR Value N_50n
SYMATTR Value2 l=50n w=0.5u
SYMBOL pmos4 288 -80 R0
SYMATTR InstName M3
SYMATTR Value P_50n
SYMATTR Value2 l=50n w=1.12u
SYMBOL pmos4 64 -80 R0
SYMATTR InstName M4
SYMATTR Value P_50n
SYMATTR Value2 l=50n w=1.12u
SYMBOL voltage -240 112 R0
WINDOW 123 0 0 Left 2
WINDOW 39 0 0 Left 2
SYMATTR InstName V1
SYMATTR Value PULSE(1.2 0 0 10n 10n 50u 100u)
SYMBOL voltage -96 336 R0
WINDOW 123 0 0 Left 2
WINDOW 39 0 0 Left 2
SYMATTR InstName V2
SYMATTR Value PULSE(1.2 0 0 10n 10n 100u 200u)
SYMBOL voltage 384 -304 R0
WINDOW 123 0 0 Left 2
WINDOW 39 0 0 Left 2
SYMATTR InstName VDD
SYMATTR Value 1.2
TEXT 600 80 Left 2 !.include cmosedu_models.txt
TEXT -304 536 Left 2 !.tran 200u
