Version 4
SHEET 1 880 680
WIRE 160 -80 80 -80
WIRE 256 -80 160 -80
WIRE 256 -48 256 -80
WIRE 256 80 256 32
WIRE 80 112 80 -80
WIRE 256 128 256 80
WIRE 80 224 80 192
WIRE 256 224 256 192
WIRE 256 224 80 224
WIRE 80 256 80 224
FLAG 80 256 0
FLAG 160 -80 superior
FLAG 256 80 meio
SYMBOL voltage 80 96 R0
WINDOW 123 24 124 Left 2
WINDOW 39 0 0 Left 2
SYMATTR Value2 AC 1
SYMATTR InstName V1
SYMATTR Value ""
SYMBOL res 240 -64 R0
SYMATTR InstName R1
SYMATTR Value 1k
SYMBOL cap 240 128 R0
SYMATTR InstName C1
SYMATTR Value 1µ
TEXT 48 280 Left 2 !.ac dec 10 1 1k
