Version 4
SHEET 1 880 680
WIRE 128 80 48 80
WIRE 368 80 208 80
WIRE 208 96 208 80
WIRE 48 112 48 80
WIRE 368 112 368 80
WIRE 288 144 208 144
WIRE 128 176 128 80
WIRE 160 176 128 176
WIRE 208 208 208 192
WIRE 288 208 288 144
WIRE 288 208 208 208
WIRE 48 224 48 192
WIRE 208 224 208 208
WIRE 208 224 48 224
WIRE 368 224 368 192
WIRE 368 224 208 224
WIRE 208 272 208 224
FLAG 208 272 0
SYMBOL nmos4 160 96 R0
SYMATTR InstName M1
SYMATTR Value modn
SYMATTR Value2 l=1.5u w=3.5u
SYMBOL voltage 368 96 R0
WINDOW 123 0 0 Left 2
WINDOW 39 0 0 Left 2
SYMATTR InstName Vds
SYMATTR Value 2
SYMBOL voltage 48 96 R0
WINDOW 123 0 0 Left 2
WINDOW 39 0 0 Left 2
SYMATTR InstName Vgs
SYMATTR Value 1.08
TEXT 48 24 Left 2 !.include mos_models_level1.txt
TEXT 48 48 Left 2 !.op
